<?xml version="1.0" encoding="utf-8"?>
<RelativeLayout xmlns:android="http://schemas.android.com/apk/res/android"
    android:layout_width="match_parent"
    android:layout_height="65dp"
    android:background="@drawable/item_selector"
    android:orientation="vertical">

    <LinearLayout
        android:layout_width="match_parent"
        android:layout_height="64dp"
        android:gravity="center_vertical"
        android:orientation="horizontal"
        android:paddingLeft="@dimen/activity_horizontal_margin"
        android:paddingRight="@dimen/activity_horizontal_margin">

        <net.suntrans.smarthome.widget.CircleImageView
            android:layout_width="48dp"
            android:layout_height="48dp"
            android:background="#d4e4ae"
            android:src="@drawable/ic_time" />

        <LinearLayout
            android:layout_width="match_parent"
            android:layout_height="match_parent"
            android:layout_marginLeft="@dimen/activity_horizontal_margin"
            android:orientation="horizontal">

            <TextView
                android:id="@+id/link_itemCon_name"
                android:layout_width="wrap_content"
                android:layout_height="match_parent"
                android:layout_weight="1"
                android:gravity="center|left"
                android:text="时间"
                android:textColor="@color/colorPrimary"
                android:textSize="16sp" />

            <TextView
                android:id="@+id/link_itemCon_action"

                android:layout_width="wrap_content"
                android:layout_height="match_parent"
                android:layout_weight="1"
                android:gravity="center"
                android:text="变为"
                android:textColor="@color/colorPrimary"
                android:textSize="16sp" />

            <TextView
                android:id="@+id/link_itemCon_value"
                android:layout_width="wrap_content"
                android:layout_height="match_parent"
                android:layout_weight="1"
                android:gravity="center|right"
                android:text="9:00~12:00"
                android:textColor="@color/colorPrimary"
                android:textSize="16sp" />

        </LinearLayout>
    </LinearLayout>

    <View
        android:layout_alignParentBottom="true"
        android:background="#bdbdbd"
        android:layout_width="match_parent"
        android:layout_height="1px" />
</RelativeLayout>