<?xml version="1.0" encoding="utf-8"?>
<layout xmlns:app="http://schemas.android.com/apk/res-auto">

    <data>
        <variable
            name="channel"
            type="net.suntrans.suntranssmarthome.homepage.device.switchs.ChannelResult.Channel"/>
        <!--<import type="String"/>-->
    </data>

    <LinearLayout xmlns:android="http://schemas.android.com/apk/res/android"
        android:layout_width="match_parent"
        android:layout_height="wrap_content"
        android:orientation="vertical"
      >

        <RelativeLayout
            android:gravity="center_vertical"
            android:paddingLeft="@dimen/activity_horizontal_margin"
            android:paddingRight="@dimen/activity_horizontal_margin"
            android:layout_width="match_parent"
            android:layout_height="45dp">

            <TextView
                android:layout_marginRight="50dp"
                android:background="?attr/selectableItemBackground"
                android:id="@+id/channelName"
                android:layout_width="match_parent"
                android:layout_height="match_parent"
                android:gravity="center|left"
                android:textColor="@color/black"
                android:textSize="16sp" />

            <net.suntrans.suntranssmarthome.widget.SwitchButton
                app:kswThumbDrawable="@drawable/switch_top_circle"
                app:kswBackDrawable="@drawable/switch_bottom_white"
                android:id="@+id/switchButton"
                android:layout_centerInParent="true"
                android:layout_width="wrap_content"
                android:layout_height="wrap_content"
                android:layout_alignParentRight="true" />
        </RelativeLayout>

        <ImageView
            style="@style/line_horizontal_middle_gray"
            android:layout_marginLeft="13.0dip"
            android:layout_marginRight="13.0dip" />
    </LinearLayout>
</layout>