<?xml version="1.0" encoding="utf-8"?>
<layout xmlns:app="http://schemas.android.com/apk/res-auto">

    <data>
        <variable
            name="channel"
            type="net.suntrans.smarthome.bean.ChannelResult.Channel"/>
        <!--<import type="String"/>-->
    </data>

    <LinearLayout xmlns:android="http://schemas.android.com/apk/res/android"
        android:layout_width="match_parent"
        android:layout_height="wrap_content"
        android:orientation="vertical"
      >

        <RelativeLayout
            android:gravity="center_vertical"
            android:paddingLeft="@dimen/activity_horizontal_margin"
            android:paddingRight="@dimen/activity_horizontal_margin"
            android:layout_width="match_parent"
            android:layout_height="64dp">

            <ImageView
                android:background="#94c9d6"
                android:src="@drawable/icon_light"
                android:layout_centerVertical="true"
                android:id="@+id/imageView"
                android:layout_width="48dp"
                android:layout_height="48dp"
                android:scaleType="fitXY" />

            <LinearLayout
                android:background="?attr/selectableItemBackground"
                android:id="@+id/root"
                android:layout_toRightOf="@+id/imageView"
                android:layout_marginLeft="@dimen/activity_horizontal_margin"
                android:layout_centerVertical="true"
                android:layout_width="match_parent"
                android:layout_height="wrap_content"
                android:gravity="center_vertical"
                android:orientation="vertical"
                >

                <TextView
                    android:id="@+id/name"
                    android:layout_width="wrap_content"
                    android:layout_height="wrap_content"
                    android:text=""
                    android:textColor="@color/black"
                    android:textSize="16sp" />

                <TextView
                    android:id="@+id/channelName"
                    android:layout_width="wrap_content"
                    android:layout_height="wrap_content"
                    android:layout_marginTop="4dp"
                    android:text=""
                    android:textColor="@color/scan_sencond_text_color"
                    android:textSize="14sp" />
            </LinearLayout>

            <net.suntrans.smarthome.widget.SwitchButton
                app:kswThumbDrawable="@drawable/switch_top_circle"
                app:kswBackDrawable="@drawable/switch_bottom_white"
                android:id="@+id/switchButton"
                android:layout_centerInParent="true"
                android:layout_width="wrap_content"
                android:layout_height="wrap_content"
                android:layout_alignParentRight="true" />
        </RelativeLayout>

        <ImageView
            style="@style/line_horizontal_middle_gray"
            android:layout_marginLeft="13.0dip"
            android:layout_marginRight="13.0dip" />
    </LinearLayout>
</layout>